# Core scientific computing
numpy>=1.24.0
pandas>=2.0.0
matplotlib>=3.7.0
scipy>=1.10.0

# Geospatial and mesh processing
shapely>=2.0.0
geopandas>=0.13.0
xarray>=2023.1.0
netcdf4>=1.6.0

# Deltares tools for D-Flow FM
hydrolib-core>=0.7.0
dfm-tools>=0.18.0
meshkernel>=3.0.0

# Jupyter and interactive tools
jupyter>=1.0.0
jupyterlab>=4.0.0
ipywidgets>=8.0.0
ipympl>=0.9.0

# Data handling and utilities
requests>=2.28.0
tqdm>=4.64.0

# Development and testing (optional)
pytest>=7.0.0
black>=23.0.0
flake8>=6.0.0

# Additional dependencies that might be needed
cartopy>=0.21.0
rasterio>=1.3.0
fiona>=1.9.0
