# Core D-Flow FM and grid handling
dfm_tools>=0.21.0
meshkernel>=4.3.0
xugrid>=0.9.0
hydrolib-core>=0.7.0

# Numerical and scientific computing
numpy>=1.21.0
scipy>=1.7.0

# Visualization
matplotlib>=3.5.0

# Geometry operations
shapely>=2.0.0

# Data handling
xarray>=2023.1.0
netcdf4
pandas>=1.3.0

# Jupyter environment
jupyter
jupyterlab
ipykernel
